<?xml version="1.0" encoding="UTF-8"?>

<!-- generated on 2025-08-29 14:12:35 by Eclipse SUMO netedit Version 1.24.0
<neteditConfiguration xmlns:xsi="http://www.w3.org/2001/XMLSchema-instance" xsi:noNamespaceSchemaLocation="http://sumo.dlr.de/xsd/neteditConfiguration.xsd">

    <input>
        <sumocfg-file value="D:\Traffic\RL.sumocfg"/>
        <additional-files value="D:\Traffic\RL.add.xml"/>
        <route-files value="D:\Traffic\RL.rou.xml"/>
        <sumo-net-file value="D:\Traffic\RL.net.xml"/>
    </input>

    <output>
        <output-file value="D:\Traffic\RL.net.xml"/>
    </output>

    <processing>
        <offset.disable-normalization value="true"/>
    </processing>

    <junctions>
        <no-turnarounds value="true"/>
    </junctions>

    <netedit>
        <new-network value="false"/>
    </netedit>

</neteditConfiguration>
-->

<net version="1.20" junctionCornerDetail="5" limitTurnSpeed="5.50" xmlns:xsi="http://www.w3.org/2001/XMLSchema-instance" xsi:noNamespaceSchemaLocation="http://sumo.dlr.de/xsd/net_file.xsd">

    <location netOffset="0.00,0.00" convBoundary="-200.00,-200.00,200.00,100.00" origBoundary="10000000000.00,10000000000.00,-10000000000.00,-10000000000.00" projParameter="!"/>

    <edge id=":J9_0" function="internal">
        <lane id=":J9_0_0" index="0" speed="3.90" length="2.58" shape="192.00,-190.40 191.90,-191.10 191.60,-191.60 191.10,-191.90 190.40,-192.00"/>
        <lane id=":J9_0_1" index="1" speed="6.08" length="7.74" shape="195.20,-190.40 194.90,-192.50 194.00,-194.00 192.50,-194.90 190.40,-195.20"/>
        <lane id=":J9_0_2" index="2" speed="7.66" length="12.90" shape="198.40,-190.40 197.90,-193.90 196.40,-196.40 193.90,-197.90 190.40,-198.40"/>
    </edge>
    <edge id=":J9_3" function="internal">
        <lane id=":J9_3_0" index="0" speed="11.12" length="28.38" shape="190.40,-208.00 198.10,-206.90 203.60,-203.60 206.90,-198.10 208.00,-190.40"/>
        <lane id=":J9_3_1" index="1" speed="10.10" length="23.22" shape="190.40,-204.80 196.70,-203.90 201.20,-201.20 203.90,-196.70 204.80,-190.40"/>
        <lane id=":J9_3_2" index="2" speed="8.96" length="18.06" shape="190.40,-201.60 195.30,-200.90 198.80,-198.80 200.90,-195.30 201.60,-190.40"/>
    </edge>
    <edge id=":Node1_0" function="internal">
        <lane id=":Node1_0_0" index="0" speed="11.12" length="28.38" shape="-190.40,8.00 -198.10,6.90 -203.60,3.60 -206.90,-1.90 -208.00,-9.60"/>
        <lane id=":Node1_0_1" index="1" speed="10.10" length="23.22" shape="-190.40,4.80 -196.70,3.90 -201.20,1.20 -203.90,-3.30 -204.80,-9.60"/>
        <lane id=":Node1_0_2" index="2" speed="8.96" length="18.06" shape="-190.40,1.60 -195.30,0.90 -198.80,-1.20 -200.90,-4.70 -201.60,-9.60"/>
    </edge>
    <edge id=":Node1_3" function="internal">
        <lane id=":Node1_3_0" index="0" speed="3.90" length="2.58" shape="-192.00,-9.60 -191.90,-8.90 -191.60,-8.40 -191.10,-8.10 -190.40,-8.00"/>
        <lane id=":Node1_3_1" index="1" speed="6.08" length="7.74" shape="-195.20,-9.60 -194.90,-7.50 -194.00,-6.00 -192.50,-5.10 -190.40,-4.80"/>
        <lane id=":Node1_3_2" index="2" speed="7.66" length="12.90" shape="-198.40,-9.60 -197.90,-6.10 -196.40,-3.60 -193.90,-2.10 -190.40,-1.60"/>
    </edge>
    <edge id=":Node2_0" function="internal">
        <lane id=":Node2_0_0" index="0" speed="6.51" length="9.03" shape="-8.00,13.60 -8.35,11.15 -9.40,9.40 -11.15,8.35 -13.60,8.00"/>
    </edge>
    <edge id=":Node2_1" function="internal">
        <lane id=":Node2_1_0" index="0" speed="13.89" length="27.20" shape="-8.00,13.60 -8.00,-13.60"/>
        <lane id=":Node2_1_1" index="1" speed="13.89" length="27.20" shape="-4.80,13.60 -4.80,-13.60"/>
        <lane id=":Node2_1_2" index="2" speed="13.89" length="27.20" shape="-1.60,13.60 -1.60,-13.60"/>
    </edge>
    <edge id=":Node2_4" function="internal">
        <lane id=":Node2_4_0" index="0" speed="10.36" length="5.01" shape="-1.60,13.60 -0.89,8.64"/>
    </edge>
    <edge id=":Node2_20" function="internal">
        <lane id=":Node2_20_0" index="0" speed="10.36" length="19.50" shape="-0.89,8.64 -0.65,6.95 2.20,2.20 6.95,-0.65 13.60,-1.60"/>
    </edge>
    <edge id=":Node2_5" function="internal">
        <lane id=":Node2_5_0" index="0" speed="6.51" length="9.03" shape="13.60,8.00 11.15,8.35 9.40,9.40 8.35,11.15 8.00,13.60"/>
    </edge>
    <edge id=":Node2_6" function="internal">
        <lane id=":Node2_6_0" index="0" speed="13.89" length="27.20" shape="13.60,8.00 -13.60,8.00"/>
        <lane id=":Node2_6_1" index="1" speed="13.89" length="27.20" shape="13.60,4.80 -13.60,4.80"/>
        <lane id=":Node2_6_2" index="2" speed="13.89" length="27.20" shape="13.60,1.60 -13.60,1.60"/>
    </edge>
    <edge id=":Node2_9" function="internal">
        <lane id=":Node2_9_0" index="0" speed="10.36" length="5.01" shape="13.60,1.60 8.64,0.89"/>
    </edge>
    <edge id=":Node2_21" function="internal">
        <lane id=":Node2_21_0" index="0" speed="10.36" length="19.50" shape="8.64,0.89 6.95,0.65 2.20,-2.20 -0.65,-6.95 -1.60,-13.60"/>
    </edge>
    <edge id=":Node2_10" function="internal">
        <lane id=":Node2_10_0" index="0" speed="6.51" length="9.03" shape="8.00,-13.60 8.35,-11.15 9.40,-9.40 11.15,-8.35 13.60,-8.00"/>
    </edge>
    <edge id=":Node2_11" function="internal">
        <lane id=":Node2_11_0" index="0" speed="13.89" length="27.20" shape="8.00,-13.60 8.00,13.60"/>
        <lane id=":Node2_11_1" index="1" speed="13.89" length="27.20" shape="4.80,-13.60 4.80,13.60"/>
        <lane id=":Node2_11_2" index="2" speed="13.89" length="27.20" shape="1.60,-13.60 1.60,13.60"/>
    </edge>
    <edge id=":Node2_14" function="internal">
        <lane id=":Node2_14_0" index="0" speed="10.36" length="5.01" shape="1.60,-13.60 0.89,-8.64"/>
    </edge>
    <edge id=":Node2_22" function="internal">
        <lane id=":Node2_22_0" index="0" speed="10.36" length="19.50" shape="0.89,-8.64 0.65,-6.95 -2.20,-2.20 -6.95,0.65 -13.60,1.60"/>
    </edge>
    <edge id=":Node2_15" function="internal">
        <lane id=":Node2_15_0" index="0" speed="6.51" length="9.03" shape="-13.60,-8.00 -11.15,-8.35 -9.40,-9.40 -8.35,-11.15 -8.00,-13.60"/>
    </edge>
    <edge id=":Node2_16" function="internal">
        <lane id=":Node2_16_0" index="0" speed="13.89" length="27.20" shape="-13.60,-8.00 13.60,-8.00"/>
        <lane id=":Node2_16_1" index="1" speed="13.89" length="27.20" shape="-13.60,-4.80 13.60,-4.80"/>
        <lane id=":Node2_16_2" index="2" speed="13.89" length="27.20" shape="-13.60,-1.60 13.60,-1.60"/>
    </edge>
    <edge id=":Node2_19" function="internal">
        <lane id=":Node2_19_0" index="0" speed="10.36" length="5.01" shape="-13.60,-1.60 -8.64,-0.89"/>
    </edge>
    <edge id=":Node2_23" function="internal">
        <lane id=":Node2_23_0" index="0" speed="10.36" length="19.50" shape="-8.64,-0.89 -6.95,-0.65 -2.20,2.20 0.65,6.95 1.60,13.60"/>
    </edge>
    <edge id=":Node3_0" function="internal">
        <lane id=":Node3_0_0" index="0" speed="11.12" length="28.38" shape="208.00,-9.60 206.90,-1.90 203.60,3.60 198.10,6.90 190.40,8.00"/>
        <lane id=":Node3_0_1" index="1" speed="10.10" length="23.22" shape="204.80,-9.60 203.90,-3.30 201.20,1.20 196.70,3.90 190.40,4.80"/>
        <lane id=":Node3_0_2" index="2" speed="8.96" length="18.06" shape="201.60,-9.60 200.90,-4.70 198.80,-1.20 195.30,0.90 190.40,1.60"/>
    </edge>
    <edge id=":Node3_3" function="internal">
        <lane id=":Node3_3_0" index="0" speed="3.90" length="2.58" shape="190.40,-8.00 191.10,-8.10 191.60,-8.40 191.90,-8.90 192.00,-9.60"/>
        <lane id=":Node3_3_1" index="1" speed="6.08" length="7.74" shape="190.40,-4.80 192.50,-5.10 194.00,-6.00 194.90,-7.50 195.20,-9.60"/>
        <lane id=":Node3_3_2" index="2" speed="7.66" length="12.90" shape="190.40,-1.60 193.90,-2.10 196.40,-3.60 197.90,-6.10 198.40,-9.60"/>
    </edge>
    <edge id=":Node4_0" function="internal">
        <lane id=":Node4_0_0" index="0" speed="11.12" length="28.38" shape="-208.00,-190.40 -206.90,-198.10 -203.60,-203.60 -198.10,-206.90 -190.40,-208.00"/>
        <lane id=":Node4_0_1" index="1" speed="10.10" length="23.22" shape="-204.80,-190.40 -203.90,-196.70 -201.20,-201.20 -196.70,-203.90 -190.40,-204.80"/>
        <lane id=":Node4_0_2" index="2" speed="8.96" length="18.06" shape="-201.60,-190.40 -200.90,-195.30 -198.80,-198.80 -195.30,-200.90 -190.40,-201.60"/>
    </edge>
    <edge id=":Node4_3" function="internal">
        <lane id=":Node4_3_0" index="0" speed="3.90" length="2.58" shape="-190.40,-192.00 -191.10,-191.90 -191.60,-191.60 -191.90,-191.10 -192.00,-190.40"/>
        <lane id=":Node4_3_1" index="1" speed="6.08" length="7.74" shape="-190.40,-195.20 -192.50,-194.90 -194.00,-194.00 -194.90,-192.50 -195.20,-190.40"/>
        <lane id=":Node4_3_2" index="2" speed="7.66" length="12.90" shape="-190.40,-198.40 -193.90,-197.90 -196.40,-196.40 -197.90,-193.90 -198.40,-190.40"/>
    </edge>
    <edge id=":Node6_0" function="internal">
        <lane id=":Node6_0_0" index="0" speed="6.51" length="9.03" shape="-8.00,-186.40 -8.35,-188.85 -9.40,-190.60 -11.15,-191.65 -13.60,-192.00"/>
    </edge>
    <edge id=":Node6_1" function="internal">
        <lane id=":Node6_1_0" index="0" speed="11.36" length="29.67" shape="-4.80,-186.40 -3.65,-194.45 -0.20,-200.20 5.55,-203.65 13.60,-204.80"/>
        <lane id=":Node6_1_1" index="1" speed="10.36" length="24.51" shape="-1.60,-186.40 -0.65,-193.05 2.20,-197.80 6.95,-200.65 13.60,-201.60"/>
    </edge>
    <edge id=":Node6_3" function="internal">
        <lane id=":Node6_3_0" index="0" speed="6.51" length="9.03" shape="13.60,-192.00 11.15,-191.65 9.40,-190.60 8.35,-188.85 8.00,-186.40"/>
    </edge>
    <edge id=":Node6_4" function="internal">
        <lane id=":Node6_4_0" index="0" speed="13.89" length="27.20" shape="13.60,-192.00 -13.60,-192.00"/>
        <lane id=":Node6_4_1" index="1" speed="13.89" length="27.20" shape="13.60,-195.20 -13.60,-195.20"/>
        <lane id=":Node6_4_2" index="2" speed="13.89" length="27.20" shape="13.60,-198.40 -13.60,-198.40"/>
    </edge>
    <edge id=":Node6_7" function="internal">
        <lane id=":Node6_7_0" index="0" speed="13.89" length="27.20" shape="-13.60,-208.00 13.60,-208.00"/>
        <lane id=":Node6_7_1" index="1" speed="13.89" length="27.20" shape="-13.60,-204.80 13.60,-204.80"/>
        <lane id=":Node6_7_2" index="2" speed="13.89" length="27.20" shape="-13.60,-201.60 13.60,-201.60"/>
    </edge>
    <edge id=":Node6_10" function="internal">
        <lane id=":Node6_10_0" index="0" speed="10.88" length="6.03" shape="-13.60,-201.60 -7.62,-200.89"/>
        <lane id=":Node6_10_1" index="1" speed="10.36" length="5.01" shape="-13.60,-201.60 -8.64,-200.89"/>
    </edge>
    <edge id=":Node6_12" function="internal">
        <lane id=":Node6_12_0" index="0" speed="10.88" length="21.12" shape="-7.62,-200.89 -5.55,-200.65 0.20,-197.80 3.65,-193.05 4.80,-186.40"/>
        <lane id=":Node6_12_1" index="0" speed="10.36" length="19.50" shape="-8.64,-200.89 -6.95,-200.65 -2.20,-197.80 0.65,-193.05 1.60,-186.40"/>
    </edge>

    <edge id="-E10" from="Node6" to="J9" priority="-1">
        <lane id="-E10_0" index="0" speed="13.89" length="176.80" shape="13.60,-208.00 190.40,-208.00"/>
        <lane id="-E10_1" index="1" speed="13.89" length="176.80" shape="13.60,-204.80 190.40,-204.80"/>
        <lane id="-E10_2" index="2" speed="13.89" length="176.80" shape="13.60,-201.60 190.40,-201.60"/>
    </edge>
    <edge id="-E11" from="Node4" to="Node6" priority="-1">
        <lane id="-E11_0" index="0" speed="13.89" length="176.80" shape="-190.40,-208.00 -13.60,-208.00"/>
        <lane id="-E11_1" index="1" speed="13.89" length="176.80" shape="-190.40,-204.80 -13.60,-204.80"/>
        <lane id="-E11_2" index="2" speed="13.89" length="176.80" shape="-190.40,-201.60 -13.60,-201.60"/>
    </edge>
    <edge id="-E12" from="Node1" to="Node4" priority="-1">
        <lane id="-E12_0" index="0" speed="13.89" length="180.80" shape="-208.00,-9.60 -208.00,-190.40"/>
        <lane id="-E12_1" index="1" speed="13.89" length="180.80" shape="-204.80,-9.60 -204.80,-190.40"/>
        <lane id="-E12_2" index="2" speed="13.89" length="180.80" shape="-201.60,-9.60 -201.60,-190.40"/>
    </edge>
    <edge id="-E9" from="J9" to="Node3" priority="-1">
        <lane id="-E9_0" index="0" speed="13.89" length="180.80" shape="208.00,-190.40 208.00,-9.60"/>
        <lane id="-E9_1" index="1" speed="13.89" length="180.80" shape="204.80,-190.40 204.80,-9.60"/>
        <lane id="-E9_2" index="2" speed="13.89" length="180.80" shape="201.60,-190.40 201.60,-9.60"/>
    </edge>
    <edge id="E10" from="J9" to="Node6" priority="-1">
        <lane id="E10_0" index="0" speed="13.89" length="176.80" shape="190.40,-192.00 13.60,-192.00"/>
        <lane id="E10_1" index="1" speed="13.89" length="176.80" shape="190.40,-195.20 13.60,-195.20"/>
        <lane id="E10_2" index="2" speed="13.89" length="176.80" shape="190.40,-198.40 13.60,-198.40"/>
    </edge>
    <edge id="E11" from="Node6" to="Node4" priority="-1">
        <lane id="E11_0" index="0" speed="13.89" length="176.80" shape="-13.60,-192.00 -190.40,-192.00"/>
        <lane id="E11_1" index="1" speed="13.89" length="176.80" shape="-13.60,-195.20 -190.40,-195.20"/>
        <lane id="E11_2" index="2" speed="13.89" length="176.80" shape="-13.60,-198.40 -190.40,-198.40"/>
    </edge>
    <edge id="E12" from="Node4" to="Node1" priority="-1">
        <lane id="E12_0" index="0" speed="13.89" length="180.80" shape="-192.00,-190.40 -192.00,-9.60"/>
        <lane id="E12_1" index="1" speed="13.89" length="180.80" shape="-195.20,-190.40 -195.20,-9.60"/>
        <lane id="E12_2" index="2" speed="13.89" length="180.80" shape="-198.40,-190.40 -198.40,-9.60"/>
    </edge>
    <edge id="E9" from="Node3" to="J9" priority="-1">
        <lane id="E9_0" index="0" speed="13.89" length="180.80" shape="192.00,-9.60 192.00,-190.40"/>
        <lane id="E9_1" index="1" speed="13.89" length="180.80" shape="195.20,-9.60 195.20,-190.40"/>
        <lane id="E9_2" index="2" speed="13.89" length="180.80" shape="198.40,-9.60 198.40,-190.40"/>
    </edge>
    <edge id="Node1_2_EB" from="Node1" to="Node2" priority="-1">
        <lane id="Node1_2_EB_0" index="0" speed="13.89" length="176.80" shape="-190.40,-8.00 -13.60,-8.00"/>
        <lane id="Node1_2_EB_1" index="1" speed="13.89" length="176.80" shape="-190.40,-4.80 -13.60,-4.80"/>
        <lane id="Node1_2_EB_2" index="2" speed="13.89" length="176.80" shape="-190.40,-1.60 -13.60,-1.60"/>
    </edge>
    <edge id="Node1_2_WB" from="Node2" to="Node1" priority="-1">
        <lane id="Node1_2_WB_0" index="0" speed="13.89" length="176.80" shape="-13.60,8.00 -190.40,8.00"/>
        <lane id="Node1_2_WB_1" index="1" speed="13.89" length="176.80" shape="-13.60,4.80 -190.40,4.80"/>
        <lane id="Node1_2_WB_2" index="2" speed="13.89" length="176.80" shape="-13.60,1.60 -190.40,1.60"/>
    </edge>
    <edge id="Node2_3_EB" from="Node2" to="Node3" priority="-1">
        <lane id="Node2_3_EB_0" index="0" speed="13.89" length="176.80" shape="13.60,-8.00 190.40,-8.00"/>
        <lane id="Node2_3_EB_1" index="1" speed="13.89" length="176.80" shape="13.60,-4.80 190.40,-4.80"/>
        <lane id="Node2_3_EB_2" index="2" speed="13.89" length="176.80" shape="13.60,-1.60 190.40,-1.60"/>
    </edge>
    <edge id="Node2_3_WB" from="Node3" to="Node2" priority="-1">
        <lane id="Node2_3_WB_0" index="0" speed="13.89" length="176.80" shape="190.40,8.00 13.60,8.00"/>
        <lane id="Node2_3_WB_1" index="1" speed="13.89" length="176.80" shape="190.40,4.80 13.60,4.80"/>
        <lane id="Node2_3_WB_2" index="2" speed="13.89" length="176.80" shape="190.40,1.60 13.60,1.60"/>
    </edge>
    <edge id="Node2_5_NB" from="Node6" to="Node2" priority="-1">
        <lane id="Node2_5_NB_0" index="0" speed="13.89" length="172.80" shape="8.00,-186.40 8.00,-13.60"/>
        <lane id="Node2_5_NB_1" index="1" speed="13.89" length="172.80" shape="4.80,-186.40 4.80,-13.60"/>
        <lane id="Node2_5_NB_2" index="2" speed="13.89" length="172.80" shape="1.60,-186.40 1.60,-13.60"/>
    </edge>
    <edge id="Node2_5_SB" from="Node2" to="Node6" priority="-1">
        <lane id="Node2_5_SB_0" index="0" speed="13.89" length="172.80" shape="-8.00,-13.60 -8.00,-186.40"/>
        <lane id="Node2_5_SB_1" index="1" speed="13.89" length="172.80" shape="-4.80,-13.60 -4.80,-186.40"/>
        <lane id="Node2_5_SB_2" index="2" speed="13.89" length="172.80" shape="-1.60,-13.60 -1.60,-186.40"/>
    </edge>
    <edge id="Node2_7_SB" from="Node7" to="Node2" priority="-1">
        <lane id="Node2_7_SB_0" index="0" speed="13.89" length="86.40" shape="-8.00,100.00 -8.00,13.60"/>
        <lane id="Node2_7_SB_1" index="1" speed="13.89" length="86.40" shape="-4.80,100.00 -4.80,13.60"/>
        <lane id="Node2_7_SB_2" index="2" speed="13.89" length="86.40" shape="-1.60,100.00 -1.60,13.60"/>
    </edge>
    <edge id="Node2_7_WB" from="Node2" to="Node7" priority="-1">
        <lane id="Node2_7_WB_0" index="0" speed="13.89" length="86.40" shape="8.00,13.60 8.00,100.00"/>
        <lane id="Node2_7_WB_1" index="1" speed="13.89" length="86.40" shape="4.80,13.60 4.80,100.00"/>
        <lane id="Node2_7_WB_2" index="2" speed="13.89" length="86.40" shape="1.60,13.60 1.60,100.00"/>
    </edge>

    <tlLogic id="Node2" type="static" programID="0" offset="0">
        <phase duration="42" state="GGGGgrrrrrGGGGgrrrrr"/>
        <phase duration="3"  state="yyyyyrrrrryyyyyrrrrr"/>
        <phase duration="42" state="rrrrrGGGGgrrrrrGGGGg"/>
        <phase duration="3"  state="rrrrryyyyyrrrrryyyyy"/>
    </tlLogic>
    <tlLogic id="Node6" type="static" programID="0" offset="0">
        <phase duration="42" state="rrrGGGGGGGgg"/>
        <phase duration="3"  state="rrrGyyyyyyyy"/>
        <phase duration="42" state="GGGGrrrrrrrr"/>
        <phase duration="3"  state="yyyGrrrrrrrr"/>
    </tlLogic>

    <junction id="J9" type="priority" x="200.00" y="-200.00" incLanes="E9_0 E9_1 E9_2 -E10_0 -E10_1 -E10_2" intLanes=":J9_0_0 :J9_0_1 :J9_0_2 :J9_3_0 :J9_3_1 :J9_3_2" shape="190.40,-190.40 209.60,-190.40 209.07,-196.27 207.47,-201.07 204.80,-204.80 201.07,-207.47 196.27,-209.07 190.40,-209.60">
        <request index="0" response="000000" foes="000000" cont="0"/>
        <request index="1" response="000000" foes="000000" cont="0"/>
        <request index="2" response="000000" foes="000000" cont="0"/>
        <request index="3" response="000000" foes="000000" cont="0"/>
        <request index="4" response="000000" foes="000000" cont="0"/>
        <request index="5" response="000000" foes="000000" cont="0"/>
    </junction>
    <junction id="Node1" type="priority" x="-200.00" y="0.00" incLanes="Node1_2_WB_0 Node1_2_WB_1 Node1_2_WB_2 E12_0 E12_1 E12_2" intLanes=":Node1_0_0 :Node1_0_1 :Node1_0_2 :Node1_3_0 :Node1_3_1 :Node1_3_2" shape="-190.40,9.60 -190.40,-9.60 -209.60,-9.60 -209.07,-3.73 -207.47,1.07 -204.80,4.80 -201.07,7.47 -196.27,9.07">
        <request index="0" response="000000" foes="000000" cont="0"/>
        <request index="1" response="000000" foes="000000" cont="0"/>
        <request index="2" response="000000" foes="000000" cont="0"/>
        <request index="3" response="000000" foes="000000" cont="0"/>
        <request index="4" response="000000" foes="000000" cont="0"/>
        <request index="5" response="000000" foes="000000" cont="0"/>
    </junction>
    <junction id="Node2" type="traffic_light" x="0.00" y="0.00" incLanes="Node2_7_SB_0 Node2_7_SB_1 Node2_7_SB_2 Node2_3_WB_0 Node2_3_WB_1 Node2_3_WB_2 Node2_5_NB_0 Node2_5_NB_1 Node2_5_NB_2 Node1_2_EB_0 Node1_2_EB_1 Node1_2_EB_2" intLanes=":Node2_0_0 :Node2_1_0 :Node2_1_1 :Node2_1_2 :Node2_20_0 :Node2_5_0 :Node2_6_0 :Node2_6_1 :Node2_6_2 :Node2_21_0 :Node2_10_0 :Node2_11_0 :Node2_11_1 :Node2_11_2 :Node2_22_0 :Node2_15_0 :Node2_16_0 :Node2_16_1 :Node2_16_2 :Node2_23_0" shape="-9.60,13.60 9.60,13.60 10.04,11.38 10.60,10.60 11.38,10.04 12.38,9.71 13.60,9.60 13.60,-9.60 11.38,-10.04 10.60,-10.60 10.04,-11.38 9.71,-12.38 9.60,-13.60 -9.60,-13.60 -10.04,-11.38 -10.60,-10.60 -11.38,-10.04 -12.38,-9.71 -13.60,-9.60 -13.60,9.60 -11.38,10.04 -10.60,10.60 -10.04,11.38 -9.71,12.38">
        <request index="0"  response="00000000000000000000" foes="00000000000111000000" cont="0"/>
        <request index="1"  response="10000000001000000000" foes="11111100001111000000" cont="0"/>
        <request index="2"  response="10000000001000000000" foes="11111100001111000000" cont="0"/>
        <request index="3"  response="10000000001000000000" foes="11111100001111000000" cont="0"/>
        <request index="4"  response="10000011101000000000" foes="11110011101111000000" cont="1"/>
        <request index="5"  response="00000011100000000000" foes="00000011100000000000" cont="0"/>
        <request index="6"  response="00000111100000011111" foes="10000111100000011111" cont="0"/>
        <request index="7"  response="00000111100000011111" foes="10000111100000011111" cont="0"/>
        <request index="8"  response="00000111100000011111" foes="10000111100000011111" cont="0"/>
        <request index="9"  response="01110111100000011110" foes="01110111100000011110" cont="1"/>
        <request index="10" response="00000000000000000000" foes="01110000000000000000" cont="0"/>
        <request index="11" response="10000000001000000000" foes="11110000001111110000" cont="0"/>
        <request index="12" response="10000000001000000000" foes="11110000001111110000" cont="0"/>
        <request index="13" response="10000000001000000000" foes="11110000001111110000" cont="0"/>
        <request index="14" response="10000000001000001110" foes="11110000001111001110" cont="1"/>
        <request index="15" response="00000000000000001110" foes="00000000000000001110" cont="0"/>
        <request index="16" response="00000111110000011110" foes="00000111111000011110" cont="0"/>
        <request index="17" response="00000111110000011110" foes="00000111111000011110" cont="0"/>
        <request index="18" response="00000111110000011110" foes="00000111111000011110" cont="0"/>
        <request index="19" response="00000111100111011110" foes="00000111100111011110" cont="1"/>
    </junction>
    <junction id="Node3" type="priority" x="200.00" y="0.00" incLanes="-E9_0 -E9_1 -E9_2 Node2_3_EB_0 Node2_3_EB_1 Node2_3_EB_2" intLanes=":Node3_0_0 :Node3_0_1 :Node3_0_2 :Node3_3_0 :Node3_3_1 :Node3_3_2" shape="209.60,-9.60 190.40,-9.60 190.40,9.60 196.27,9.07 201.07,7.47 204.80,4.80 207.47,1.07 209.07,-3.73">
        <request index="0" response="000000" foes="000000" cont="0"/>
        <request index="1" response="000000" foes="000000" cont="0"/>
        <request index="2" response="000000" foes="000000" cont="0"/>
        <request index="3" response="000000" foes="000000" cont="0"/>
        <request index="4" response="000000" foes="000000" cont="0"/>
        <request index="5" response="000000" foes="000000" cont="0"/>
    </junction>
    <junction id="Node4" type="priority" x="-200.00" y="-200.00" incLanes="-E12_0 -E12_1 -E12_2 E11_0 E11_1 E11_2" intLanes=":Node4_0_0 :Node4_0_1 :Node4_0_2 :Node4_3_0 :Node4_3_1 :Node4_3_2" shape="-209.60,-190.40 -190.40,-190.40 -190.40,-209.60 -196.27,-209.07 -201.07,-207.47 -204.80,-204.80 -207.47,-201.07 -209.07,-196.27">
        <request index="0" response="000000" foes="000000" cont="0"/>
        <request index="1" response="000000" foes="000000" cont="0"/>
        <request index="2" response="000000" foes="000000" cont="0"/>
        <request index="3" response="000000" foes="000000" cont="0"/>
        <request index="4" response="000000" foes="000000" cont="0"/>
        <request index="5" response="000000" foes="000000" cont="0"/>
    </junction>
    <junction id="Node6" type="traffic_light" x="0.00" y="-200.00" incLanes="Node2_5_SB_0 Node2_5_SB_1 Node2_5_SB_2 E10_0 E10_1 E10_2 -E11_0 -E11_1 -E11_2" intLanes=":Node6_0_0 :Node6_1_0 :Node6_1_1 :Node6_3_0 :Node6_4_0 :Node6_4_1 :Node6_4_2 :Node6_7_0 :Node6_7_1 :Node6_7_2 :Node6_12_0 :Node6_12_1" shape="-9.60,-186.40 9.60,-186.40 10.04,-188.62 10.60,-189.40 11.38,-189.96 12.38,-190.29 13.60,-190.40 13.60,-209.60 -13.60,-209.60 -13.60,-190.40 -11.38,-189.96 -10.60,-189.40 -10.04,-188.62 -9.71,-187.62">
        <request index="0"  response="000001110000" foes="000001110000" cont="0"/>
        <request index="1"  response="111111110000" foes="111111110000" cont="0"/>
        <request index="2"  response="111111110000" foes="111111110000" cont="0"/>
        <request index="3"  response="000000000000" foes="000000000000" cont="0"/>
        <request index="4"  response="000000000000" foes="110000000111" cont="0"/>
        <request index="5"  response="000000000000" foes="110000000111" cont="0"/>
        <request index="6"  response="000000000000" foes="110000000111" cont="0"/>
        <request index="7"  response="000000000000" foes="000000000110" cont="0"/>
        <request index="8"  response="000000000000" foes="000000000110" cont="0"/>
        <request index="9"  response="000000000000" foes="000000000110" cont="0"/>
        <request index="10" response="000001110000" foes="000001110110" cont="1"/>
        <request index="11" response="000001110000" foes="000001110110" cont="1"/>
    </junction>
    <junction id="Node7" type="dead_end" x="0.00" y="100.00" incLanes="Node2_7_WB_0 Node2_7_WB_1 Node2_7_WB_2" intLanes="" shape="0.00,100.00 9.60,100.00 0.00,100.00"/>

    <junction id=":Node2_20_0" type="internal" x="-0.89" y="8.64" incLanes=":Node2_4_0 Node2_5_NB_0 Node2_5_NB_1 Node2_5_NB_2" intLanes=":Node2_6_0 :Node2_6_1 :Node2_6_2 :Node2_9_0 :Node2_10_0 :Node2_11_0 :Node2_11_1 :Node2_11_2 :Node2_16_0 :Node2_16_1 :Node2_16_2 :Node2_19_0"/>
    <junction id=":Node2_21_0" type="internal" x="8.64" y="0.89" incLanes=":Node2_9_0 Node1_2_EB_0 Node1_2_EB_1 Node1_2_EB_2" intLanes=":Node2_1_0 :Node2_1_1 :Node2_1_2 :Node2_4_0 :Node2_11_0 :Node2_11_1 :Node2_11_2 :Node2_14_0 :Node2_15_0 :Node2_16_0 :Node2_16_1 :Node2_16_2"/>
    <junction id=":Node2_22_0" type="internal" x="0.89" y="-8.64" incLanes=":Node2_14_0 Node2_7_SB_0 Node2_7_SB_1 Node2_7_SB_2" intLanes=":Node2_0_0 :Node2_1_0 :Node2_1_1 :Node2_1_2 :Node2_6_0 :Node2_6_1 :Node2_6_2 :Node2_9_0 :Node2_16_0 :Node2_16_1 :Node2_16_2 :Node2_19_0"/>
    <junction id=":Node2_23_0" type="internal" x="-8.64" y="-0.89" incLanes=":Node2_19_0 Node2_3_WB_0 Node2_3_WB_1 Node2_3_WB_2" intLanes=":Node2_1_0 :Node2_1_1 :Node2_1_2 :Node2_4_0 :Node2_5_0 :Node2_6_0 :Node2_6_1 :Node2_6_2 :Node2_11_0 :Node2_11_1 :Node2_11_2 :Node2_14_0"/>
    <junction id=":Node6_12_0" type="internal" x="-7.62" y="-200.89" incLanes=":Node6_10_0 E10_0 E10_1 E10_2" intLanes=":Node6_1_0 :Node6_1_1 :Node6_4_0 :Node6_4_1 :Node6_4_2"/>
    <junction id=":Node6_12_1" type="internal" x="-8.64" y="-200.89" incLanes=":Node6_10_1 E10_0 E10_1 E10_2" intLanes=":Node6_1_0 :Node6_1_1 :Node6_4_0 :Node6_4_1 :Node6_4_2"/>

    <connection from="-E10" to="-E9" fromLane="0" toLane="0" via=":J9_3_0" dir="l" state="M"/>
    <connection from="-E10" to="-E9" fromLane="1" toLane="1" via=":J9_3_1" dir="l" state="M"/>
    <connection from="-E10" to="-E9" fromLane="2" toLane="2" via=":J9_3_2" dir="l" state="M"/>
    <connection from="-E11" to="-E10" fromLane="0" toLane="0" via=":Node6_7_0" tl="Node6" linkIndex="7" dir="s" state="O"/>
    <connection from="-E11" to="-E10" fromLane="1" toLane="1" via=":Node6_7_1" tl="Node6" linkIndex="8" dir="s" state="O"/>
    <connection from="-E11" to="-E10" fromLane="2" toLane="2" via=":Node6_7_2" tl="Node6" linkIndex="9" dir="s" state="O"/>
    <connection from="-E11" to="Node2_5_NB" fromLane="2" toLane="1" via=":Node6_10_0" tl="Node6" linkIndex="10" dir="l" state="o"/>
    <connection from="-E11" to="Node2_5_NB" fromLane="2" toLane="2" via=":Node6_10_1" tl="Node6" linkIndex="11" dir="l" state="o"/>
    <connection from="-E12" to="-E11" fromLane="0" toLane="0" via=":Node4_0_0" dir="l" state="M"/>
    <connection from="-E12" to="-E11" fromLane="1" toLane="1" via=":Node4_0_1" dir="l" state="M"/>
    <connection from="-E12" to="-E11" fromLane="2" toLane="2" via=":Node4_0_2" dir="l" state="M"/>
    <connection from="-E9" to="Node2_3_WB" fromLane="0" toLane="0" via=":Node3_0_0" dir="l" state="M"/>
    <connection from="-E9" to="Node2_3_WB" fromLane="1" toLane="1" via=":Node3_0_1" dir="l" state="M"/>
    <connection from="-E9" to="Node2_3_WB" fromLane="2" toLane="2" via=":Node3_0_2" dir="l" state="M"/>
    <connection from="E10" to="Node2_5_NB" fromLane="0" toLane="0" via=":Node6_3_0" tl="Node6" linkIndex="3" dir="r" state="O"/>
    <connection from="E10" to="E11" fromLane="0" toLane="0" via=":Node6_4_0" tl="Node6" linkIndex="4" dir="s" state="O"/>
    <connection from="E10" to="E11" fromLane="1" toLane="1" via=":Node6_4_1" tl="Node6" linkIndex="5" dir="s" state="O"/>
    <connection from="E10" to="E11" fromLane="2" toLane="2" via=":Node6_4_2" tl="Node6" linkIndex="6" dir="s" state="O"/>
    <connection from="E11" to="E12" fromLane="0" toLane="0" via=":Node4_3_0" dir="r" state="M"/>
    <connection from="E11" to="E12" fromLane="1" toLane="1" via=":Node4_3_1" dir="r" state="M"/>
    <connection from="E11" to="E12" fromLane="2" toLane="2" via=":Node4_3_2" dir="r" state="M"/>
    <connection from="E12" to="Node1_2_EB" fromLane="0" toLane="0" via=":Node1_3_0" dir="r" state="M"/>
    <connection from="E12" to="Node1_2_EB" fromLane="1" toLane="1" via=":Node1_3_1" dir="r" state="M"/>
    <connection from="E12" to="Node1_2_EB" fromLane="2" toLane="2" via=":Node1_3_2" dir="r" state="M"/>
    <connection from="E9" to="E10" fromLane="0" toLane="0" via=":J9_0_0" dir="r" state="M"/>
    <connection from="E9" to="E10" fromLane="1" toLane="1" via=":J9_0_1" dir="r" state="M"/>
    <connection from="E9" to="E10" fromLane="2" toLane="2" via=":J9_0_2" dir="r" state="M"/>
    <connection from="Node1_2_EB" to="Node2_5_SB" fromLane="0" toLane="0" via=":Node2_15_0" tl="Node2" linkIndex="15" dir="r" state="o"/>