<?xml version="1.0" encoding="UTF-8"?>

<!-- generated on 2025-08-29 14:06:05 by Eclipse SUMO netedit Version 1.24.0
-->

<routes xmlns:xsi="http://www.w3.org/2001/XMLSchema-instance" xsi:noNamespaceSchemaLocation="http://sumo.dlr.de/xsd/routes_file.xsd">
    <!-- Vehicles, persons and containers (sorted by depart) -->
    <flow id="f_0" begin="0.00" from="-E11" to="Node1_2_WB" via="-E10 Node2_3_WB" end="3600.00" vehsPerHour="1800"/>
    <flow id="f_1" begin="0.00" from="Node1_2_EB" to="E11" via="Node2_3_EB E9 E10" end="3600.00" vehsPerHour="1800"/>
    <flow id="f_2" begin="0.00" from="Node2_7_SB" to="E12" via="E11" end="3600.00" vehsPerHour="1800"/>
</routes>
